!UKS B3LYP def2-SVP TightSCF Grid5 NoFinalGrid
%pal nprocs 8 end

%scf
MaxIter   1000
end

* xyz 0 1
 C                 -1.00923073    0.76615383    0.00000000
 H                 -0.65257630   -0.24265617    0.00000000
 H                 -0.65255789    1.27055202    0.87365150
 H                 -0.65255789    1.27055202   -0.87365150
 H                 -2.07923073    0.76616702    0.00000000
*




